Version 4
SHEET 1 880 680
WIRE 64 64 32 64
WIRE 112 64 80 64
WIRE 352 64 240 64
WIRE 240 128 240 64
WIRE 288 128 240 128
WIRE 192 192 32 192
WIRE 352 192 192 192
SYMBOL cktsym\\resistor 176 64 R90
WINDOW 3 12 0 VTop 2
WINDOW 0 -12 0 VBottom 2
SYMATTR Value {R}
SYMATTR InstName R1
SYMBOL cktsym\\npn 352 128 R0
SYMATTR Value 2N3904
SYMATTR InstName Q1
SYMBOL cktsym\\vsource 32 128 R0
SYMATTR Value 1
SYMATTR InstName V_in
SYMBOL cktsym\\gnd 192 192 R0
SYMATTR InstName U1
SYMBOL cktsym\\ammeter1 64 64 R270
WINDOW 0 18 8 VTop 2
SYMATTR InstName I1
TEXT 8 264 Left 2 !.include engr2420.sub
TEXT 8 288 Left 2 !.step param R list 100 1000 10000
TEXT 8 312 Left 2 !.dc V_in 0 3 .05
