Version 4
SHEET 1 880 680
WIRE 128 112 64 112
WIRE 320 112 256 112
WIRE 256 176 256 112
WIRE 192 240 64 240
WIRE 320 240 192 240
SYMBOL cktsym\\isource 64 176 R180
WINDOW 3 48 -16 Left 2
WINDOW 0 48 16 Left 2
SYMATTR Value 1
SYMATTR InstName I_in
SYMBOL cktsym\\resistor 192 112 R90
WINDOW 3 12 0 VTop 2
WINDOW 0 -12 0 VBottom 2
SYMATTR Value {R}
SYMATTR InstName R1
SYMBOL cktsym\\npn 320 176 R0
SYMATTR InstName Q1
SYMBOL cktsym\\gnd 192 240 R0
SYMATTR InstName U1
TEXT 24 304 Left 2 !.include engr2420.sub
TEXT 24 336 Left 2 !.step param R list 100 1000 10000
TEXT 24 368 Left 2 !.dc dec I_in 1nA 10mA 15
