Version 4
SHEET 1 928 680
WIRE 48 112 48 64
WIRE 128 112 48 112
WIRE 208 112 128 112
WIRE 368 112 288 112
WIRE 448 112 368 112
WIRE 528 112 448 112
WIRE 608 112 528 112
WIRE 768 112 608 112
WIRE 128 240 48 240
WIRE 208 240 128 240
WIRE 288 240 208 240
WIRE 368 240 288 240
WIRE 448 240 368 240
WIRE 528 240 448 240
WIRE 608 240 528 240
WIRE 768 240 768 112
WIRE 288 288 288 240
FLAG 48 64 V_in
FLAG 288 288 V_out
FLAG -112 80 V_in
FLAG 768 240 0
FLAG -112 208 0
SYMBOL cktsym\\resistor 48 176 R0
SYMATTR Value {R}
SYMATTR InstName R1
SYMBOL cktsym\\resistor 128 176 R0
SYMATTR Value {R}
SYMATTR InstName R2
SYMBOL cktsym\\resistor 208 176 R0
SYMATTR Value {R}
SYMATTR InstName R3
SYMBOL cktsym\\resistor 288 176 R0
SYMATTR Value {R}
SYMATTR InstName R4
SYMBOL cktsym\\resistor 368 176 R0
SYMATTR Value {R}
SYMATTR InstName R5
SYMBOL cktsym\\resistor 448 176 R0
SYMATTR Value {R}
SYMATTR InstName R6
SYMBOL cktsym\\resistor 528 176 R0
SYMATTR Value {R}
SYMATTR InstName R7
SYMBOL cktsym\\resistor 608 176 R0
SYMATTR Value {R}
SYMATTR InstName R8
SYMBOL cktsym\\vsource -112 144 R0
SYMATTR Value 5
SYMATTR InstName V1
TEXT 32 -56 Left 2 !.step param run 1 500 1
TEXT 32 -24 Left 2 !.dc V1 0 1 0.05
TEXT 32 -88 Left 2 !.param cv=0.002 R={10k * (1. + gauss(cv))}
TEXT 32 -120 Left 2 !.include engr2420.sub
