Version 4
SHEET 1 1364 680
WIRE 48 112 48 64
WIRE 208 112 48 112
WIRE 368 112 208 112
WIRE 688 112 528 112
WIRE 848 112 688 112
WIRE 1008 112 848 112
WIRE 1168 112 1008 112
WIRE 1344 112 1168 112
WIRE 208 240 48 240
WIRE 368 240 208 240
WIRE 448 240 368 240
WIRE 528 240 448 240
WIRE 688 240 528 240
WIRE 848 240 688 240
WIRE 1008 240 848 240
WIRE 1168 240 1008 240
WIRE 1344 240 1344 112
WIRE 448 336 448 240
FLAG 48 64 V_in
FLAG -112 80 V_in
FLAG -112 208 0
FLAG 1344 240 0
FLAG 448 336 V_out
SYMBOL cktsym\\resistor 48 176 R0
WINDOW 3 28 16 Left 0
SYMATTR Value {R*(1. + gauss(cv))}
SYMATTR InstName R1
SYMBOL cktsym\\vsource -112 144 R0
SYMATTR Value 5
SYMATTR InstName V1
SYMBOL cktsym\\resistor 208 176 R0
WINDOW 3 28 16 Left 0
SYMATTR Value {R*(1. + gauss(cv))}
SYMATTR InstName R2
SYMBOL cktsym\\resistor 368 176 R0
WINDOW 3 28 16 Left 0
SYMATTR Value {R*(1. + gauss(cv))}
SYMATTR InstName R3
SYMBOL cktsym\\resistor 528 176 R0
WINDOW 3 28 16 Left 0
SYMATTR Value {R*(1. + gauss(cv))}
SYMATTR InstName R4
SYMBOL cktsym\\resistor 688 176 R0
WINDOW 3 28 16 Left 0
SYMATTR Value {R*(1. + gauss(cv))}
SYMATTR InstName R5
SYMBOL cktsym\\resistor 848 176 R0
WINDOW 3 28 16 Left 0
SYMATTR Value {R*(1. + gauss(cv))}
SYMATTR InstName R6
SYMBOL cktsym\\resistor 1008 176 R0
WINDOW 3 28 16 Left 0
SYMATTR Value {R*(1. + gauss(cv))}
SYMATTR InstName R7
SYMBOL cktsym\\resistor 1168 176 R0
WINDOW 3 28 16 Left 0
SYMATTR Value {R*(1. + gauss(cv))}
SYMATTR InstName R8
TEXT 32 -56 Left 2 !.step param run 1 500 1
TEXT 32 -24 Left 2 !.dc V1 0 1 0.05
TEXT 32 -88 Left 2 !.param cv=0.002 R=10k
TEXT 32 -120 Left 2 !.include engr2420.sub
